CRYSTAL
PRIMVEC
    3.839590    0.000000    0.000000
    0.000000    3.839590    0.000000
    0.000000    0.000000    5.430000
PRIMCOORD
         4 1
        Si    1.919795    1.919795    2.715000        -0.099351    0.074789    0.234424
        Si    0.000000    1.919795    4.072500         0.099334   -0.074663   -0.234032
        Si    0.000000    0.000000    0.000000        -0.099348    0.074668    0.234409
        Si    1.919795    0.000000    1.357500         0.099340   -0.074787   -0.234774
