CRYSTAL
PRIMVEC
    5.423514    0.000000    0.000000
    0.000000    5.423514    0.000000
    0.000000    0.000000    5.423514
PRIMCOORD
         2 1
        Fe    2.711757    2.711757    2.711757        -0.000000   -0.000000    0.000001
        Fe    0.000000    0.000000    0.000000        -0.000000   -0.000002    0.000000
